18

Au       -5.76      0.0000000000      0.0000000000                 
Au       -2.88      0.0000000000      0.000000000
Au       0.0000000000      0.0000000000      0.0000000000                 
H        1.5439649424     -2.2326364614      0.0510016051                 
C        1.6077929193     -1.1276908843      0.0283370413                 
C        2.8922439772     -0.6124548782      0.0161243254                 
C        3.1863056731      0.8036767829     -0.0116172328                 
H        4.0207994760     -2.5345887055      0.0482384965                 
C        4.1182178699     -1.4361577745      0.0273866393                 
C        4.3784818265      1.4339435713     -0.0298892506                 
H        4.4759180873      2.5323769978     -0.0508275090                 
C        5.3103753897     -0.8058636840      0.0090885145                 
C        5.6044261598      0.6102692849     -0.0184935465                 
C        6.8889294421      1.1252723577     -0.0303400174                 
H        6.9531629867      2.2302082951     -0.0537766732                 
Au       8.4981703537      0.0000000000      0.0000000000    
Au       11.3781703537     0.0               0.0
Au       14.2581703537     0.0               0.0 
